<configuration>
    <gui-settings-file value="render-view.xml"/>
</configuration>