<?xml version="1.0" encoding="UTF-8"?>

<!-- generated on 2022-07-25 21:46:08 by Eclipse SUMO netedit Version 1.10.0
<configuration xmlns:xsi="http://www.w3.org/2001/XMLSchema-instance" xsi:noNamespaceSchemaLocation="http://sumo.dlr.de/xsd/netconvertConfiguration.xsd">

    <input>
        <sumo-net-file value="C:\Users\root\PycharmProjects\Auto\Simulations\Sc05.net.xml"/>
    </input>

    <output>
        <output-file value="C:\Users\root\PycharmProjects\Auto\Simulations\Sc05.net.xml"/>
    </output>

    <processing>
        <geometry.min-radius.fix.railways value="false"/>
        <geometry.max-grade.fix value="false"/>
        <offset.disable-normalization value="true"/>
        <lefthand value="false"/>
    </processing>

    <junctions>
        <no-turnarounds value="true"/>
        <junctions.corner-detail value="5"/>
        <junctions.limit-turn-speed value="5.5"/>
        <rectangular-lane-cut value="false"/>
    </junctions>

    <pedestrian>
        <walkingareas value="false"/>
    </pedestrian>

    <netedit>
        <route-files value="C:\Users\root\PycharmProjects\Auto\Simulations\Sc05.rou.xml"/>
    </netedit>

    <report>
        <aggregate-warnings value="5"/>
    </report>

</configuration>
-->

<net version="1.9" junctionCornerDetail="5" limitTurnSpeed="5.50" xmlns:xsi="http://www.w3.org/2001/XMLSchema-instance" xsi:noNamespaceSchemaLocation="http://sumo.dlr.de/xsd/net_file.xsd">

    <location netOffset="0.00,0.00" convBoundary="-300.00,75.00,100.00,100.00" origBoundary="-10000000000.00,-10000000000.00,10000000000.00,10000000000.00" projParameter="!"/>

    <edge id=":gneJ1_0" function="internal">
        <lane id=":gneJ1_0_0" index="0" speed="13.89" length="16.19" shape="-113.87,94.88 -110.06,95.94 -106.04,97.10 -102.00,98.02 -98.11,98.40"/>
    </edge>
    <edge id=":gneJ1_1" function="internal">
        <lane id=":gneJ1_1_0" index="0" speed="13.89" length="16.19" shape="-114.30,98.40 -98.11,98.40"/>
    </edge>

    <edge id="gneE0" from="gneJ0" to="gneJ1" priority="1">
        <lane id="gneE0_0" index="0" speed="13.89" length="185.70" shape="-300.00,98.40 -114.30,98.40"/>
    </edge>
    <edge id="gneE1" from="gneJ1" to="gneJ2" priority="-1">
        <lane id="gneE1_0" index="0" speed="13.89" length="198.11" shape="-98.11,98.40 100.00,98.40"/>
    </edge>
    <edge id="gneE4" from="gneJ3" to="gneJ1" priority="-1">
        <lane id="gneE4_0" index="0" speed="13.89" length="88.38" shape="-199.61,73.45 -113.87,94.88"/>
    </edge>

    <junction id="gneJ0" type="dead_end" x="-300.00" y="100.00" incLanes="" intLanes="" shape="-300.00,100.00 -300.00,96.80"/>
    <junction id="gneJ1" type="priority" x="-100.00" y="100.00" incLanes="gneE4_0 gneE0_0" intLanes=":gneJ1_0_0 :gneJ1_1_0" shape="-98.11,100.00 -98.11,96.80 -101.45,96.68 -103.89,96.33 -105.88,95.78 -107.85,95.08 -110.23,94.25 -113.48,93.33 -114.26,96.44 -114.30,96.80 -114.30,100.00">
        <request index="0" response="10" foes="10" cont="0"/>
        <request index="1" response="00" foes="01" cont="0"/>
    </junction>
    <junction id="gneJ2" type="dead_end" x="100.00" y="100.00" incLanes="gneE1_0" intLanes="" shape="100.00,96.80 100.00,100.00"/>
    <junction id="gneJ3" type="dead_end" x="-200.00" y="75.00" incLanes="" intLanes="" shape="-200.00,75.00 -199.22,71.90"/>

    <connection from="gneE0" to="gneE1" fromLane="0" toLane="0" via=":gneJ1_1_0" dir="s" state="M"/>
    <connection from="gneE4" to="gneE1" fromLane="0" toLane="0" via=":gneJ1_0_0" dir="s" state="m"/>

    <connection from=":gneJ1_0" to="gneE1" fromLane="0" toLane="0" dir="s" state="M"/>
    <connection from=":gneJ1_1" to="gneE1" fromLane="0" toLane="0" dir="s" state="M"/>

</net>
