<?xml version="1.0" encoding="UTF-8"?>

<!-- generated on 2022-07-25 21:47:03 by Eclipse SUMO netedit Version 1.10.0
<configuration xmlns:xsi="http://www.w3.org/2001/XMLSchema-instance" xsi:noNamespaceSchemaLocation="http://sumo.dlr.de/xsd/netconvertConfiguration.xsd">

    <input>
        <sumo-net-file value="C:\Users\root\PycharmProjects\Auto\Simulations\Sc05.net.xml"/>
    </input>

    <output>
        <output-file value="C:\Users\root\PycharmProjects\Auto\Simulations\Sc05b.net.xml"/>
    </output>

    <processing>
        <geometry.min-radius.fix.railways value="false"/>
        <geometry.max-grade.fix value="false"/>
        <offset.disable-normalization value="true"/>
        <lefthand value="false"/>
    </processing>

    <junctions>
        <no-turnarounds value="true"/>
        <junctions.corner-detail value="5"/>
        <junctions.limit-turn-speed value="5.5"/>
        <rectangular-lane-cut value="false"/>
    </junctions>

    <pedestrian>
        <walkingareas value="false"/>
    </pedestrian>

    <netedit>
        <route-files value="C:\Users\root\PycharmProjects\Auto\Simulations\Sc05b.rou.xml"/>
    </netedit>

    <report>
        <aggregate-warnings value="5"/>
    </report>

</configuration>
-->

<routes xmlns:xsi="http://www.w3.org/2001/XMLSchema-instance" xsi:noNamespaceSchemaLocation="http://sumo.dlr.de/xsd/routes_file.xsd">
    <vType id="OTHER_VEHTYPE" speedFactor="normc(1.00,0.00)" vClass="passenger"/>
    <route edges="gneE0 gneE1" color="51,115,175" id="route_0_WITH_GAP"/>
    <route edges="gneE4 gneE1" color="200,211,23" id="route_EGO"/>
    <flow id="flow_0" type="OTHER_VEHTYPE" begin="0.00" departSpeed="max" route="route_0_WITH_GAP" end="3600.00" probability="0.40"/>
</routes>
